Version 4
SHEET 1 1428 680
WIRE -512 -240 -672 -240
WIRE 480 -240 -512 -240
WIRE 528 -240 480 -240
WIRE 544 -240 528 -240
WIRE 784 -240 720 -240
WIRE 1024 -240 784 -240
WIRE 1136 -240 1088 -240
WIRE -672 -208 -672 -240
WIRE 480 -128 480 -240
WIRE 528 -128 480 -128
WIRE 624 -64 624 -80
WIRE 832 -32 16 -32
WIRE 1136 -32 1136 -240
WIRE 1136 -32 928 -32
WIRE -512 0 -512 -240
WIRE 784 80 784 -240
WIRE 784 80 352 80
WIRE -256 96 -368 96
WIRE 16 96 16 -32
WIRE 16 96 -256 96
WIRE 96 96 16 96
WIRE -256 112 -256 96
WIRE 912 160 912 16
WIRE 912 160 352 160
WIRE 96 176 64 176
WIRE -656 192 -704 192
WIRE -704 208 -704 192
WIRE 64 256 64 176
WIRE 96 256 64 256
WIRE -256 288 -368 288
WIRE 64 288 64 256
WIRE -256 320 -256 288
WIRE -512 400 -512 384
FLAG -256 176 0
FLAG -256 400 0
FLAG -512 400 0
FLAG -704 208 0
FLAG -672 -128 0
FLAG 64 288 0
FLAG 1136 32 0
FLAG 624 -64 0
SYMBOL PowerProducts\\LTC4412 224 176 R0
SYMATTR InstName U1
SYMBOL PowerProducts\\LTC4054-4.2 -512 192 R0
SYMATTR InstName U2
SYMBOL Misc\\cell -256 112 R0
WINDOW 123 0 0 Left 0
WINDOW 39 0 0 Left 0
SYMATTR InstName V1
SYMATTR Value 3.3
SYMBOL res -272 304 R0
SYMATTR InstName R1
SYMATTR Value 10k
SYMBOL voltage -672 -224 R0
WINDOW 123 0 0 Left 0
WINDOW 39 0 0 Left 0
SYMATTR InstName V2
SYMATTR Value PULSE(0 5 1 0 0 3 6 1)
SYMBOL pmos 832 16 R270
SYMATTR InstName M1
SYMBOL schottky 1024 -224 R270
WINDOW 0 32 32 VTop 2
WINDOW 3 0 32 VBottom 2
SYMATTR InstName D1
SYMBOL cap 1120 -32 R0
SYMATTR InstName C1
SYMATTR Value 10µ
SYMBOL PowerProducts\\ADP160-3.3 624 -128 R0
SYMATTR InstName U3
TEXT -724 424 Left 2 !.tran 10
