Version 4
SHEET 1 3144 1972
WIRE 96 -768 -48 -768
WIRE -48 -672 -48 -768
WIRE -48 -560 -48 -592
WIRE 96 -560 -48 -560
WIRE -48 -528 -48 -560
WIRE -48 -384 -48 -448
WIRE 96 -384 -48 -384
WIRE 688 -80 560 -80
WIRE 928 -80 768 -80
WIRE 2512 -48 2384 -48
WIRE 2752 -48 2592 -48
WIRE 144 32 -48 32
WIRE 560 48 560 -80
WIRE 688 48 560 48
WIRE 928 48 928 -80
WIRE 928 48 752 48
WIRE 1968 64 1776 64
WIRE 144 80 144 32
WIRE 2384 80 2384 -48
WIRE 2512 80 2384 80
WIRE 2752 80 2752 -48
WIRE 2752 80 2576 80
WIRE 1968 112 1968 64
WIRE 704 144 704 128
WIRE -48 160 -48 32
WIRE 2528 176 2528 160
WIRE 1776 192 1776 64
WIRE 144 208 144 160
WIRE 320 208 144 208
WIRE 416 208 320 208
WIRE 560 208 560 48
WIRE 560 208 496 208
WIRE 704 208 704 144
WIRE -48 240 -48 160
WIRE 144 240 144 208
WIRE 1968 240 1968 192
WIRE 2144 240 1968 240
WIRE 2240 240 2144 240
WIRE 2384 240 2384 80
WIRE 2384 240 2320 240
WIRE 2528 240 2528 176
WIRE 320 256 320 208
WIRE 560 256 560 208
WIRE 672 256 560 256
WIRE 1776 272 1776 192
WIRE 1968 272 1968 240
WIRE 912 288 816 288
WIRE 928 288 928 48
WIRE 928 288 912 288
WIRE 1232 288 928 288
WIRE 2144 288 2144 240
WIRE 2384 288 2384 240
WIRE 2496 288 2384 288
WIRE 672 320 560 320
WIRE 2736 320 2640 320
WIRE 2752 320 2752 80
WIRE 2752 320 2736 320
WIRE 3056 320 2752 320
WIRE 1232 352 1232 288
WIRE 2496 352 2384 352
WIRE 144 368 144 320
WIRE 320 368 320 320
WIRE 320 368 144 368
WIRE 416 368 320 368
WIRE 560 368 560 320
WIRE 560 368 496 368
WIRE 3056 384 3056 320
WIRE 144 400 144 368
WIRE 1968 400 1968 352
WIRE 2144 400 2144 352
WIRE 2144 400 1968 400
WIRE 2240 400 2144 400
WIRE 2384 400 2384 352
WIRE 2384 400 2320 400
WIRE 704 416 704 368
WIRE 1968 432 1968 400
WIRE 2528 448 2528 400
WIRE 560 496 560 368
WIRE 672 496 560 496
WIRE 560 528 560 496
WIRE 2384 528 2384 400
WIRE 2496 528 2384 528
WIRE 672 544 672 496
WIRE -48 560 -48 320
WIRE 144 560 144 480
WIRE 144 560 -48 560
WIRE 2384 560 2384 528
WIRE 2496 576 2496 528
WIRE 1232 592 1232 432
WIRE 1776 592 1776 352
WIRE 1968 592 1968 512
WIRE 1968 592 1776 592
WIRE 3056 624 3056 464
WIRE 560 640 560 608
WIRE 672 640 672 608
WIRE 672 640 560 640
WIRE 2384 672 2384 640
WIRE 2496 672 2496 640
WIRE 2496 672 2384 672
WIRE 560 752 560 640
WIRE 2384 784 2384 672
WIRE 672 1120 544 1120
WIRE 912 1120 752 1120
WIRE 544 1248 544 1120
WIRE 672 1248 544 1248
WIRE 912 1248 912 1120
WIRE 912 1248 736 1248
WIRE 688 1344 688 1328
WIRE 688 1408 688 1344
WIRE 384 1456 176 1456
WIRE 544 1456 544 1248
WIRE 544 1456 448 1456
WIRE 656 1456 544 1456
WIRE 896 1488 800 1488
WIRE 912 1488 912 1248
WIRE 912 1488 896 1488
WIRE 1216 1488 912 1488
WIRE 176 1520 176 1456
WIRE 656 1520 544 1520
WIRE 544 1552 544 1520
WIRE 1216 1552 1216 1488
WIRE 688 1616 688 1568
WIRE 176 1664 176 1600
WIRE 1216 1792 1216 1632
FLAG 704 144 +5
FLAG 704 416 -5
FLAG 96 -768 +5
FLAG 96 -384 -5
FLAG 96 -560 0
FLAG 560 752 0
FLAG -48 160 Vin
FLAG 912 288 Vvoltage_design
FLAG 560 256 v1
FLAG 560 320 v2
FLAG 1232 592 0
FLAG 2528 176 +5
FLAG 2528 448 -5
FLAG 2384 784 0
FLAG 1776 192 Vin
FLAG 2736 320 Vvoltage_actual
FLAG 2384 288 v1
FLAG 2384 352 v2
FLAG 3056 624 0
FLAG 688 1344 +5
FLAG 688 1616 -5
FLAG 896 1488 Vcurrent_design
FLAG 544 1456 v1
FLAG 544 1520 v2
FLAG 544 1552 0
FLAG 176 1664 0
FLAG 1216 1792 0
SYMBOL res 128 64 R0
SYMATTR InstName R1
SYMATTR Value 500k
SYMBOL res 128 224 R0
SYMATTR InstName R2
SYMATTR Value 10k
SYMBOL res 128 384 R0
SYMATTR InstName R3
SYMATTR Value 500k
SYMBOL voltage -48 224 R0
WINDOW 123 0 0 Left 0
WINDOW 39 0 0 Left 0
SYMATTR InstName Vin
SYMATTR Value SINE(0 118 500)
SYMBOL cap 304 256 R0
SYMATTR InstName C1
SYMATTR Value 100p
SYMBOL res 512 192 R90
WINDOW 0 0 56 VBottom 2
WINDOW 3 32 56 VTop 2
SYMATTR InstName R4
SYMATTR Value 10k
SYMBOL res 512 352 R90
WINDOW 0 0 56 VBottom 2
WINDOW 3 32 56 VTop 2
SYMATTR InstName R5
SYMATTR Value 10k
SYMBOL Opamps\\LTC2051 704 288 R0
SYMATTR InstName U1
SYMBOL res 784 -96 R90
WINDOW 0 0 56 VBottom 2
WINDOW 3 32 56 VTop 2
SYMATTR InstName R6
SYMATTR Value 49k
SYMBOL cap 752 32 R90
WINDOW 0 0 32 VBottom 2
WINDOW 3 32 32 VTop 2
SYMATTR InstName C2
SYMATTR Value 100p
SYMBOL voltage -48 -688 R0
WINDOW 123 0 0 Left 0
WINDOW 39 0 0 Left 0
SYMATTR InstName V2
SYMATTR Value 5
SYMBOL voltage -48 -544 R0
WINDOW 123 0 0 Left 0
WINDOW 39 0 0 Left 0
SYMATTR InstName V3
SYMATTR Value 5
SYMBOL res 544 512 R0
SYMATTR InstName R7
SYMATTR Value 49k
SYMBOL cap 656 544 R0
SYMATTR InstName C3
SYMATTR Value 100p
SYMBOL res 1216 336 R0
SYMATTR InstName R14
SYMATTR Value 1Meg
SYMBOL res 1952 96 R0
SYMATTR InstName R8
SYMATTR Value 460k
SYMBOL res 1952 256 R0
SYMATTR InstName R9
SYMATTR Value 9.3k
SYMBOL res 1952 416 R0
SYMATTR InstName R10
SYMATTR Value 480k
SYMBOL voltage 1776 256 R0
WINDOW 123 0 0 Left 0
WINDOW 39 0 0 Left 0
SYMATTR InstName Vin1
SYMATTR Value SINE(0 118 500)
SYMBOL cap 2128 288 R0
SYMATTR InstName C4
SYMATTR Value 100p
SYMBOL res 2336 224 R90
WINDOW 0 0 56 VBottom 2
WINDOW 3 32 56 VTop 2
SYMATTR InstName R11
SYMATTR Value 9.4k
SYMBOL res 2336 384 R90
WINDOW 0 0 56 VBottom 2
WINDOW 3 32 56 VTop 2
SYMATTR InstName R12
SYMATTR Value 9.4k
SYMBOL Opamps\\LTC2051 2528 320 R0
SYMATTR InstName U2
SYMBOL res 2608 -64 R90
WINDOW 0 0 56 VBottom 2
WINDOW 3 32 56 VTop 2
SYMATTR InstName R13
SYMATTR Value 46k
SYMBOL cap 2576 64 R90
WINDOW 0 0 32 VBottom 2
WINDOW 3 32 32 VTop 2
SYMATTR InstName C5
SYMATTR Value 100p
SYMBOL res 2368 544 R0
SYMATTR InstName R15
SYMATTR Value 44k
SYMBOL cap 2480 576 R0
SYMATTR InstName C6
SYMATTR Value 100p
SYMBOL res 3040 368 R0
SYMATTR InstName R16
SYMATTR Value 1Meg
SYMBOL voltage 176 1504 R0
WINDOW 123 0 0 Left 0
WINDOW 39 0 0 Left 0
SYMATTR InstName Vin2
SYMATTR Value SINE(0 0.25 500)
SYMBOL Opamps\\LTC2051 688 1488 R0
SYMATTR InstName U3
SYMBOL res 768 1104 R90
WINDOW 0 0 56 VBottom 2
WINDOW 3 32 56 VTop 2
SYMATTR InstName R22
SYMATTR Value 49k
SYMBOL cap 736 1232 R90
WINDOW 0 0 32 VBottom 2
WINDOW 3 32 32 VTop 2
SYMATTR InstName C8
SYMATTR Value 100p
SYMBOL res 1200 1536 R0
SYMATTR InstName R24
SYMATTR Value 1Meg
SYMBOL cap 448 1440 R90
WINDOW 0 0 32 VBottom 2
WINDOW 3 32 32 VTop 2
SYMATTR InstName C7
SYMATTR Value 100p
TEXT -80 -288 Left 2 !.tran 6m
TEXT 488 -208 Left 4 ;Voltage Feedback "Design"
TEXT 480 968 Left 4 ;Current Feedback "Design"
TEXT -152 -896 Left 4 ;5V Power Supply Rails
TEXT 2312 -176 Left 4 ;Voltage Feedback "Actual"
TEXT 1160 256 Left 2 ;This value is multiplied by 29.41 in LabVIEW
