Version 4
SHEET 1 880 680
WIRE -64 -192 -128 -192
WIRE -128 -144 -128 -192
WIRE 320 -48 208 -48
WIRE 496 -48 384 -48
WIRE -128 -32 -128 -64
WIRE -64 -32 -128 -32
WIRE -128 0 -128 -32
WIRE 208 48 208 -48
WIRE 320 48 208 48
WIRE 496 48 496 -48
WIRE 496 48 400 48
WIRE -128 128 -128 80
WIRE -64 128 -128 128
WIRE 304 160 304 112
WIRE -64 208 -128 208
WIRE 80 208 16 208
WIRE 208 208 208 48
WIRE 208 208 144 208
WIRE 272 208 208 208
WIRE 496 240 496 48
WIRE 496 240 416 240
WIRE -128 272 -128 208
WIRE 272 272 208 272
WIRE 304 368 304 320
WIRE -128 400 -128 352
WIRE 208 400 208 272
WIRE 208 400 -128 400
WIRE -128 432 -128 400
FLAG -64 -32 0
FLAG -64 -192 +5
FLAG -64 128 -5
FLAG 304 112 +5
FLAG 304 368 -5
FLAG -128 432 0
SYMBOL Opamps\\LTC2051 304 240 R0
SYMATTR InstName U1
SYMBOL voltage -128 -160 R0
WINDOW 123 0 0 Left 0
WINDOW 39 0 0 Left 0
SYMATTR InstName V1
SYMATTR Value 5
SYMBOL voltage -128 -16 R0
WINDOW 123 0 0 Left 0
WINDOW 39 0 0 Left 0
SYMATTR InstName V2
SYMATTR Value 5
SYMBOL res 416 32 R90
WINDOW 0 0 56 VBottom 2
WINDOW 3 32 56 VTop 2
SYMATTR InstName R1
SYMATTR Value 49.9k
SYMBOL cap 144 192 R90
WINDOW 0 0 32 VBottom 2
WINDOW 3 32 32 VTop 2
SYMATTR InstName C1
SYMATTR Value 4.7µ
SYMBOL res 32 192 R90
WINDOW 0 0 56 VBottom 2
WINDOW 3 32 56 VTop 2
SYMATTR InstName R2
SYMATTR Value 10k
SYMBOL cap 384 -64 R90
WINDOW 0 0 32 VBottom 2
WINDOW 3 32 32 VTop 2
SYMATTR InstName C2
SYMATTR Value 10p
SYMBOL voltage -128 256 R0
WINDOW 3 24 158 Left 2
WINDOW 123 24 124 Left 2
WINDOW 39 0 0 Left 0
SYMATTR Value SINE(2.5 1 1k)
SYMATTR Value2 AC 1
SYMATTR InstName V3
TEXT -128 456 Left 2 !.ac oct 5000 100m 1G
