Version 4
SHEET 1 1400 680
WIRE -64 -176 -128 -176
WIRE -128 -128 -128 -176
WIRE 320 -48 208 -48
WIRE 496 -48 384 -48
WIRE 1136 -48 1024 -48
WIRE 1312 -48 1200 -48
WIRE -128 -16 -128 -48
WIRE -64 -16 -128 -16
WIRE -128 16 -128 -16
WIRE 208 48 208 -48
WIRE 320 48 208 48
WIRE 496 48 496 -48
WIRE 496 48 400 48
WIRE 1024 48 1024 -48
WIRE 1136 48 1024 48
WIRE 1312 48 1312 -48
WIRE 1312 48 1216 48
WIRE -128 144 -128 96
WIRE -64 144 -128 144
WIRE 304 160 304 112
WIRE 1120 160 1120 112
WIRE -64 208 -128 208
WIRE 80 208 16 208
WIRE 208 208 208 48
WIRE 208 208 144 208
WIRE 272 208 208 208
WIRE 688 208 576 208
WIRE 752 208 688 208
WIRE 896 208 832 208
WIRE 1024 208 1024 48
WIRE 1024 208 960 208
WIRE 1088 208 1024 208
WIRE 496 240 496 48
WIRE 496 240 416 240
WIRE 1312 240 1312 48
WIRE 1312 240 1232 240
WIRE -128 272 -128 208
WIRE 272 272 208 272
WIRE 576 272 576 208
WIRE 688 272 688 208
WIRE 1088 272 1024 272
WIRE 304 368 304 320
WIRE 1120 368 1120 320
WIRE -128 400 -128 352
WIRE 208 400 208 272
WIRE 208 400 -128 400
WIRE 576 400 576 352
WIRE 688 400 688 352
WIRE 688 400 576 400
WIRE 1024 400 1024 272
WIRE 1024 400 688 400
WIRE -128 432 -128 400
WIRE 688 432 688 400
FLAG -64 -16 0
FLAG -64 -176 +5
FLAG -64 144 -5
FLAG 304 112 +5
FLAG 304 368 -5
FLAG -128 432 0
FLAG 1120 112 +5
FLAG 1120 368 -5
FLAG 688 432 0
SYMBOL Opamps\\LTC2051 304 240 R0
SYMATTR InstName U1
SYMBOL voltage -128 -144 R0
WINDOW 123 0 0 Left 0
WINDOW 39 0 0 Left 0
SYMATTR InstName V1
SYMATTR Value 5
SYMBOL voltage -128 0 R0
WINDOW 123 0 0 Left 0
WINDOW 39 0 0 Left 0
SYMATTR InstName V2
SYMATTR Value 5
SYMBOL res 416 32 R90
WINDOW 0 0 56 VBottom 2
WINDOW 3 32 56 VTop 2
SYMATTR InstName R1
SYMATTR Value 49.9k
SYMBOL cap 144 192 R90
WINDOW 0 0 32 VBottom 2
WINDOW 3 32 32 VTop 2
SYMATTR InstName C1
SYMATTR Value 4.7µ
SYMBOL res 32 192 R90
WINDOW 0 0 56 VBottom 2
WINDOW 3 32 56 VTop 2
SYMATTR InstName R2
SYMATTR Value 10k
SYMBOL cap 384 -64 R90
WINDOW 0 0 32 VBottom 2
WINDOW 3 32 32 VTop 2
SYMATTR InstName C2
SYMATTR Value 10p
SYMBOL voltage -128 256 R0
WINDOW 3 24 158 Left 2
WINDOW 123 24 124 Left 2
WINDOW 39 0 0 Left 0
SYMATTR Value SINE(2.5 0.1 1k)
SYMATTR Value2 AC 1
SYMATTR InstName V3
SYMBOL Opamps\\LTC2051 1120 240 R0
SYMATTR InstName U2
SYMBOL res 1232 32 R90
WINDOW 0 0 56 VBottom 2
WINDOW 3 32 56 VTop 2
SYMATTR InstName R3
SYMATTR Value 49.9k
SYMBOL cap 960 192 R90
WINDOW 0 0 32 VBottom 2
WINDOW 3 32 32 VTop 2
SYMATTR InstName C3
SYMATTR Value 4.7µ
SYMBOL res 848 192 R90
WINDOW 0 0 56 VBottom 2
WINDOW 3 32 56 VTop 2
SYMATTR InstName R4
SYMATTR Value 10k
SYMBOL cap 1200 -64 R90
WINDOW 0 0 32 VBottom 2
WINDOW 3 32 32 VTop 2
SYMATTR InstName C4
SYMATTR Value 10p
SYMBOL current 576 352 R180
WINDOW 0 24 80 Left 2
WINDOW 3 24 0 Left 2
WINDOW 123 0 0 Left 0
WINDOW 39 0 0 Left 0
SYMATTR InstName I1
SYMATTR Value SINE(62.5 20 1k)
SYMBOL res 672 256 R0
SYMATTR InstName R5
SYMATTR Value 40m
TEXT -128 456 Left 2 !.tran 0 100m 0 100n
