Version 4
SHEET 1 880 680
SYMBOL npn 224 80 R0
SYMATTR InstName Q1
SYMBOL res 176 112 R90
WINDOW 0 0 56 VBottom 2
WINDOW 3 32 56 VTop 2
SYMATTR InstName R1
