Version 4
SHEET 1 3776 2644
WIRE 96 -768 -48 -768
WIRE -48 -672 -48 -768
WIRE -48 -560 -48 -592
WIRE 96 -560 -48 -560
WIRE -48 -528 -48 -560
WIRE -48 -384 -48 -448
WIRE 96 -384 -48 -384
WIRE 688 -80 560 -80
WIRE 928 -80 768 -80
WIRE 2608 -80 2480 -80
WIRE 2848 -80 2688 -80
WIRE 144 32 -48 32
WIRE 2064 32 1872 32
WIRE 560 48 560 -80
WIRE 688 48 560 48
WIRE 928 48 928 -80
WIRE 928 48 752 48
WIRE 2480 48 2480 -80
WIRE 2608 48 2480 48
WIRE 2848 48 2848 -80
WIRE 2848 48 2672 48
WIRE 144 80 144 32
WIRE 2064 80 2064 32
WIRE 704 144 704 128
WIRE 2624 144 2624 128
WIRE 144 208 144 160
WIRE 320 208 144 208
WIRE 416 208 320 208
WIRE 560 208 560 48
WIRE 560 208 496 208
WIRE 704 208 704 144
WIRE 2064 208 2064 160
WIRE 2240 208 2064 208
WIRE 2336 208 2240 208
WIRE 2480 208 2480 48
WIRE 2480 208 2416 208
WIRE 2624 208 2624 144
WIRE -48 240 -48 32
WIRE 144 240 144 208
WIRE 1872 240 1872 32
WIRE 2064 240 2064 208
WIRE 320 256 320 208
WIRE 560 256 560 208
WIRE 672 256 560 256
WIRE 2240 256 2240 208
WIRE 2480 256 2480 208
WIRE 2592 256 2480 256
WIRE 912 288 816 288
WIRE 928 288 928 48
WIRE 928 288 912 288
WIRE 1232 288 928 288
WIRE 2832 288 2736 288
WIRE 2848 288 2848 48
WIRE 2848 288 2832 288
WIRE 3152 288 2848 288
WIRE 672 320 560 320
WIRE 2592 320 2480 320
WIRE 1232 352 1232 288
WIRE 3152 352 3152 288
WIRE 144 368 144 320
WIRE 320 368 320 320
WIRE 320 368 144 368
WIRE 416 368 320 368
WIRE 560 368 560 320
WIRE 560 368 496 368
WIRE 2064 368 2064 320
WIRE 2240 368 2240 320
WIRE 2240 368 2064 368
WIRE 2336 368 2240 368
WIRE 2480 368 2480 320
WIRE 2480 368 2416 368
WIRE 144 400 144 368
WIRE 2064 400 2064 368
WIRE 704 416 704 368
WIRE 2624 416 2624 368
WIRE 560 496 560 368
WIRE 672 496 560 496
WIRE 2480 496 2480 368
WIRE 2592 496 2480 496
WIRE 560 528 560 496
WIRE 2480 528 2480 496
WIRE 672 544 672 496
WIRE 2592 544 2592 496
WIRE -48 560 -48 320
WIRE 144 560 144 480
WIRE 144 560 -48 560
WIRE 1872 560 1872 320
WIRE 2064 560 2064 480
WIRE 2064 560 1872 560
WIRE 1232 592 1232 432
WIRE 3152 592 3152 432
WIRE 560 640 560 608
WIRE 672 640 672 608
WIRE 672 640 560 640
WIRE 2480 640 2480 608
WIRE 2592 640 2592 608
WIRE 2592 640 2480 640
WIRE 560 752 560 640
WIRE 2480 752 2480 640
WIRE 672 1120 544 1120
WIRE 912 1120 752 1120
WIRE 544 1248 544 1120
WIRE 672 1248 544 1248
WIRE 912 1248 912 1120
WIRE 912 1248 736 1248
WIRE -80 1344 -368 1344
WIRE 160 1344 160 1248
WIRE 160 1344 112 1344
WIRE 688 1344 688 1328
WIRE -368 1392 -368 1344
WIRE 176 1408 112 1408
WIRE 416 1408 256 1408
WIRE 544 1408 544 1248
WIRE 544 1408 480 1408
WIRE 688 1408 688 1344
WIRE 544 1456 544 1408
WIRE 656 1456 544 1456
WIRE -80 1472 -112 1472
WIRE 160 1472 112 1472
WIRE 896 1488 800 1488
WIRE 912 1488 912 1248
WIRE 912 1488 896 1488
WIRE 1024 1488 912 1488
WIRE 656 1520 544 1520
WIRE 1024 1520 1024 1488
WIRE -368 1536 -368 1472
WIRE -112 1536 -112 1472
WIRE -112 1536 -368 1536
WIRE 688 1616 688 1568
WIRE 160 1664 160 1472
WIRE 544 1728 544 1520
WIRE 1024 1728 1024 1600
WIRE 688 2176 688 2144
WIRE 288 2224 144 2224
WIRE 448 2224 368 2224
WIRE 656 2224 448 2224
WIRE 832 2256 800 2256
WIRE 1024 2256 832 2256
WIRE 656 2288 528 2288
WIRE 688 2352 688 2336
WIRE 144 2368 144 2224
WIRE 1024 2368 1024 2256
WIRE 448 2416 448 2224
WIRE 528 2448 528 2288
WIRE 688 2448 528 2448
WIRE 832 2448 832 2256
WIRE 832 2448 768 2448
WIRE 528 2480 528 2448
WIRE 144 2592 144 2448
WIRE 448 2592 448 2480
WIRE 448 2592 144 2592
WIRE 528 2592 528 2560
WIRE 528 2592 448 2592
WIRE 1024 2592 1024 2448
WIRE 528 2624 528 2592
FLAG 704 144 +5
FLAG 704 416 -5
FLAG 96 -768 +5
FLAG 96 -384 -5
FLAG 96 -560 0
FLAG 560 752 0
FLAG 912 288 Vvoltage_design
FLAG 1232 592 0
FLAG 2624 144 +5
FLAG 2624 416 -5
FLAG 2480 752 0
FLAG 2832 288 Vvoltage_actual
FLAG 3152 592 0
FLAG 688 1344 +5
FLAG 688 1616 -5
FLAG 896 1488 Vcurrent_design
FLAG 160 1248 +5
FLAG 160 1664 0
FLAG 544 1728 0
FLAG 1024 1728 0
FLAG 528 2624 0
FLAG 688 2352 +5
FLAG 688 2144 -5
FLAG 1024 2592 0
FLAG 1024 2256 Vtemp_design
SYMBOL res 128 64 R0
SYMATTR InstName R1
SYMATTR Value 500k
SYMBOL res 128 224 R0
SYMATTR InstName R2
SYMATTR Value 10k
SYMBOL res 128 384 R0
SYMATTR InstName R3
SYMATTR Value 500k
SYMBOL voltage -48 224 R0
WINDOW 123 0 0 Left 0
WINDOW 39 0 0 Left 0
SYMATTR InstName Vin
SYMATTR Value SINE(0 118 500)
SYMBOL cap 304 256 R0
SYMATTR InstName C1
SYMATTR Value 100p
SYMBOL res 512 192 R90
WINDOW 0 0 56 VBottom 2
WINDOW 3 32 56 VTop 2
SYMATTR InstName R4
SYMATTR Value 10k
SYMBOL res 512 352 R90
WINDOW 0 0 56 VBottom 2
WINDOW 3 32 56 VTop 2
SYMATTR InstName R5
SYMATTR Value 10k
SYMBOL Opamps\\LTC2051 704 288 R0
SYMATTR InstName U1
SYMBOL res 784 -96 R90
WINDOW 0 0 56 VBottom 2
WINDOW 3 32 56 VTop 2
SYMATTR InstName R6
SYMATTR Value 49k
SYMBOL cap 752 32 R90
WINDOW 0 0 32 VBottom 2
WINDOW 3 32 32 VTop 2
SYMATTR InstName C2
SYMATTR Value 100p
SYMBOL voltage -48 -688 R0
WINDOW 123 0 0 Left 0
WINDOW 39 0 0 Left 0
SYMATTR InstName V2
SYMATTR Value 5
SYMBOL voltage -48 -544 R0
WINDOW 123 0 0 Left 0
WINDOW 39 0 0 Left 0
SYMATTR InstName V3
SYMATTR Value 5
SYMBOL res 544 512 R0
SYMATTR InstName R7
SYMATTR Value 49k
SYMBOL cap 656 544 R0
SYMATTR InstName C3
SYMATTR Value 100p
SYMBOL res 1216 336 R0
SYMATTR InstName R14
SYMATTR Value 1Meg
SYMBOL res 2048 64 R0
SYMATTR InstName R8
SYMATTR Value 460k
SYMBOL res 2048 224 R0
SYMATTR InstName R9
SYMATTR Value 9.3k
SYMBOL res 2048 384 R0
SYMATTR InstName R10
SYMATTR Value 480k
SYMBOL voltage 1872 224 R0
WINDOW 123 0 0 Left 0
WINDOW 39 0 0 Left 0
SYMATTR InstName Vin1
SYMATTR Value SINE(0 118 500)
SYMBOL cap 2224 256 R0
SYMATTR InstName C4
SYMATTR Value 100p
SYMBOL res 2432 192 R90
WINDOW 0 0 56 VBottom 2
WINDOW 3 32 56 VTop 2
SYMATTR InstName R11
SYMATTR Value 9.4k
SYMBOL res 2432 352 R90
WINDOW 0 0 56 VBottom 2
WINDOW 3 32 56 VTop 2
SYMATTR InstName R12
SYMATTR Value 9.4k
SYMBOL Opamps\\LTC2051 2624 288 R0
SYMATTR InstName U2
SYMBOL res 2704 -96 R90
WINDOW 0 0 56 VBottom 2
WINDOW 3 32 56 VTop 2
SYMATTR InstName R13
SYMATTR Value 46k
SYMBOL cap 2672 32 R90
WINDOW 0 0 32 VBottom 2
WINDOW 3 32 32 VTop 2
SYMATTR InstName C5
SYMATTR Value 100p
SYMBOL res 2464 512 R0
SYMATTR InstName R15
SYMATTR Value 44k
SYMBOL cap 2576 544 R0
SYMATTR InstName C6
SYMATTR Value 100p
SYMBOL res 3136 336 R0
SYMATTR InstName R16
SYMATTR Value 1Meg
SYMBOL Opamps\\LTC2051 688 1488 R0
SYMATTR InstName U3
SYMBOL res 768 1104 R90
WINDOW 0 0 56 VBottom 2
WINDOW 3 32 56 VTop 2
SYMATTR InstName R22
SYMATTR Value 49k
SYMBOL cap 736 1232 R90
WINDOW 0 0 32 VBottom 2
WINDOW 3 32 32 VTop 2
SYMATTR InstName C8
SYMATTR Value 100p
SYMBOL cap 480 1392 R90
WINDOW 0 0 32 VBottom 2
WINDOW 3 32 32 VTop 2
SYMATTR InstName C10
SYMATTR Value 100n
SYMBOL Allegro\ Current\ Sensors\\ACS772 0 1376 R0
SYMATTR InstName U4
SYMBOL res 272 1392 R90
WINDOW 0 0 56 VBottom 2
WINDOW 3 32 56 VTop 2
SYMATTR InstName R17
SYMATTR Value 10k
SYMBOL current -368 1472 R180
WINDOW 0 24 80 Left 2
WINDOW 3 24 0 Left 2
WINDOW 123 0 0 Left 0
WINDOW 39 0 0 Left 0
SYMATTR InstName I1
SYMATTR Value SINE(0 20 500)
SYMBOL res 1008 1504 R0
SYMATTR InstName R18
SYMATTR Value 1Meg
SYMBOL Opamps\\LTC2051 688 2256 M180
SYMATTR InstName U5
SYMBOL res 784 2432 R90
WINDOW 0 0 56 VBottom 2
WINDOW 3 32 56 VTop 2
SYMATTR InstName R19
SYMATTR Value 37k
SYMBOL res 512 2464 R0
SYMATTR InstName R20
SYMATTR Value 10k
SYMBOL res 384 2208 R90
WINDOW 0 0 56 VBottom 2
WINDOW 3 32 56 VTop 2
SYMATTR InstName R21
SYMATTR Value 10k
SYMBOL cap 432 2416 R0
SYMATTR InstName C7
SYMATTR Value 1µ
SYMBOL voltage 144 2352 R0
WINDOW 123 0 0 Left 0
WINDOW 39 0 0 Left 0
SYMATTR InstName V1
SYMATTR Value SINE(0.75 0.75 500)
SYMBOL res 1008 2352 R0
SYMATTR InstName R23
SYMATTR Value 1Meg
TEXT -80 -288 Left 2 !.tran 6m
TEXT 488 -208 Left 4 ;Voltage Feedback "Design"
TEXT 480 968 Left 4 ;Current Feedback "Design"
TEXT -152 -896 Left 4 ;5V Power Supply Rails
TEXT 2408 -208 Left 4 ;Voltage Feedback "Actual"
TEXT 1344 432 Left 2 ;This value is multiplied by 29.41 in LabVIEW
TEXT 1128 1544 Left 2 ;NI 9201 input
TEXT 1344 392 Left 2 ;NI 9201 input
TEXT 3256 384 Left 2 ;NI 9201 input
TEXT 1128 1576 Left 2 ;This value is multiplied by 5 in LabVIEW
TEXT 3256 424 Left 2 ;This value is multiplied by 29.41 in LabVIEW
TEXT 408 1984 Left 4 ;Temperature Feedback "Design"
