Version 4
SHEET 1 880 680
WIRE 288 112 288 80
WIRE -320 160 -400 160
WIRE -112 160 -256 160
WIRE 48 160 -32 160
WIRE 256 160 48 160
WIRE 432 192 400 192
WIRE -400 224 -400 160
WIRE 256 224 128 224
WIRE 288 288 288 272
WIRE -256 304 -256 160
WIRE -400 336 -400 304
WIRE -400 336 -448 336
WIRE -448 352 -448 336
WIRE 48 352 48 160
WIRE -400 368 -400 336
WIRE 128 384 128 224
WIRE 288 384 128 384
WIRE 432 384 432 192
WIRE 432 384 368 384
WIRE 128 416 128 384
WIRE -400 528 -400 448
WIRE -320 528 -400 528
WIRE -256 528 -256 384
WIRE 48 528 48 416
WIRE 48 528 -256 528
WIRE 128 528 128 496
WIRE 128 528 48 528
WIRE 128 560 128 528
FLAG -320 160 +5
FLAG 128 560 0
FLAG -448 352 0
FLAG -320 528 -5
FLAG 288 288 +5
FLAG 288 80 -5
SYMBOL Opamps\\LTC2051 288 192 M180
SYMATTR InstName U1
SYMBOL voltage -400 208 R0
WINDOW 123 0 0 Left 0
WINDOW 39 0 0 Left 0
SYMATTR InstName V1
SYMATTR Value 5
SYMBOL res 384 368 R90
WINDOW 0 0 56 VBottom 2
WINDOW 3 32 56 VTop 2
SYMATTR InstName R1
SYMATTR Value 37.4k
SYMBOL res 112 400 R0
SYMATTR InstName R2
SYMATTR Value 10k
SYMBOL voltage -256 288 R0
WINDOW 123 24 124 Left 2
WINDOW 39 0 0 Left 0
SYMATTR Value2 AC 1
SYMATTR InstName V2
SYMATTR Value SINE(0.75 0.75 50)
SYMBOL voltage -400 352 R0
WINDOW 123 0 0 Left 0
WINDOW 39 0 0 Left 0
SYMATTR InstName V3
SYMATTR Value 5
SYMBOL res -16 144 R90
WINDOW 0 0 56 VBottom 2
WINDOW 3 32 56 VTop 2
SYMATTR InstName R3
SYMATTR Value 10k
SYMBOL cap 32 352 R0
SYMATTR InstName C2
SYMATTR Value 1µ
TEXT -256 544 Left 2 !.ac oct 5000 100m 1G
