Version 4
SHEET 1 880 680
WIRE 192 112 192 48
WIRE -448 160 -528 160
WIRE -208 160 -352 160
WIRE 16 160 -128 160
WIRE 160 160 16 160
WIRE 384 192 304 192
WIRE -528 208 -528 160
WIRE 160 224 128 224
WIRE -352 304 -352 160
WIRE 192 304 192 272
WIRE -528 336 -528 288
WIRE -448 336 -528 336
WIRE 16 352 16 160
WIRE -448 368 -448 336
WIRE -528 384 -528 336
WIRE 128 384 128 224
WIRE 240 384 128 384
WIRE 384 384 384 192
WIRE 384 384 320 384
WIRE 128 416 128 384
WIRE -528 528 -528 464
WIRE -448 528 -528 528
WIRE -352 528 -352 384
WIRE 16 528 16 416
WIRE 16 528 -352 528
WIRE 128 528 128 496
WIRE 128 528 16 528
WIRE 128 560 128 528
FLAG -448 368 0
FLAG -448 160 +5V
FLAG 192 304 +5V
FLAG 128 560 0
FLAG -448 528 -5V
FLAG 192 48 -5V
SYMBOL Opamps\\LTC2051 192 192 M180
SYMATTR InstName U1
SYMBOL voltage -528 192 R0
WINDOW 123 0 0 Left 0
WINDOW 39 0 0 Left 0
SYMATTR InstName V1
SYMATTR Value 5
SYMBOL res 336 368 R90
WINDOW 0 0 56 VBottom 2
WINDOW 3 32 56 VTop 2
SYMATTR InstName R1
SYMATTR Value 37.4k
SYMBOL res 112 400 R0
SYMATTR InstName R2
SYMATTR Value 10k
SYMBOL voltage -352 288 R0
WINDOW 123 0 0 Left 0
WINDOW 39 0 0 Left 0
WINDOW 3 38 84 Left 2
WINDOW 0 38 56 Left 2
SYMATTR Value 1
SYMATTR InstName V2
SYMBOL res -112 144 R90
WINDOW 0 0 56 VBottom 2
WINDOW 3 32 56 VTop 2
SYMATTR InstName R3
SYMATTR Value 10k
SYMBOL cap 0 352 R0
SYMATTR InstName C1
SYMATTR Value 1µ
SYMBOL voltage -528 368 R0
WINDOW 123 0 0 Left 0
WINDOW 39 0 0 Left 0
SYMATTR InstName V3
SYMATTR Value 5
TEXT -352 552 Left 2 !.tran 0 10 0 1u
